* BSS138 N-Channel MOSFET SPICE Model
.model BSS138 NMOS (LEVEL=1 
+ VTO=1.3            ; Threshold Voltage (V) - Datenblatt Min: 0.8V, Max: 1.5V
+ KP=120u            ; Transconductance Parameter (µA/V²)
+ L=200n             ; Channel Length (m)
+ W=100u             ; Channel Width (m)
+ LAMBDA=0.06        ; Channel Length Modulation (1/V)
+ RDS(on)=3.5        ; On-Resistance (Ohms) @ V_GS = 10 V
+ CGD=6p             ; Gate-Drain Capacitance (pF) - Typisch: 6 pF
+ CGS=27p            ; Gate-Source Capacitance (pF) - Typisch: 27 pF
+ IS=1p              ; Diode Saturation Current (A)
+ PB=0.8             ; Diode Built-in Potential (V)
+ MJ=0.5             ; Diode Grading Coefficient
+ CJO=5p             ; Diode Zero-Bias Junction Capacitance (pF)
)
