Version 4
SHEET 1 880 680
SYMBOL nmos 112 144 R0
SYMATTR InstName M1
